cases/IEEE-118/IEEE-118.raw
0, 100, 33, 0, 0, 60  / 27-Jan-2022 15:46:13 - MATPOWER 7.1


     1, 'Riversde  V2',       138, 2,    1,    1, 1,       0.955,       10.67, 1.06, 0.94, 1.06, 0.94
     2, 'Pokagon   V2',       138, 1,    1,    1, 1,       0.971,       11.22, 1.06, 0.94, 1.06, 0.94
     3, 'HickryCk  V2',       138, 1,    1,    1, 1,       0.968,       11.56, 1.06, 0.94, 1.06, 0.94
     4, 'NwCarlsl  V2',       138, 2,    1,    1, 1,       0.998,       15.28, 1.06, 0.94, 1.06, 0.94
     5, 'Olive     V2',       138, 1,    1,    1, 1,       1.002,       15.73, 1.06, 0.94, 1.06, 0.94
     6, 'Kankakee  V2',       138, 2,    1,    1, 1,        0.99,          13, 1.06, 0.94, 1.06, 0.94
     7, 'JacksnRd  V2',       138, 1,    1,    1, 1,       0.989,       12.56, 1.06, 0.94, 1.06, 0.94
     8, 'Olive     V1',       345, 2,    1,    1, 1,       1.015,       20.77, 1.06, 0.94, 1.06, 0.94
     9, 'Bequine   V1',       345, 1,    1,    1, 1,       1.043,       28.02, 1.06, 0.94, 1.06, 0.94
    10, 'Breed     V1',       345, 2,    1,    1, 1,        1.05,       35.61, 1.06, 0.94, 1.06, 0.94
    11, 'SouthBnd  V2',       138, 1,    1,    1, 1,       0.985,       12.72, 1.06, 0.94, 1.06, 0.94
    12, 'TwinBrch  V2',       138, 2,    1,    1, 1,        0.99,        12.2, 1.06, 0.94, 1.06, 0.94
    13, 'Concord   V2',       138, 1,    1,    1, 1,       0.968,       11.35, 1.06, 0.94, 1.06, 0.94
    14, 'GoshenJt  V2',       138, 1,    1,    1, 1,       0.984,        11.5, 1.06, 0.94, 1.06, 0.94
    15, 'FtWayne   V2',       138, 2,    1,    1, 1,        0.97,       11.23, 1.06, 0.94, 1.06, 0.94
    16, 'N. E.     V2',       138, 1,    1,    1, 1,       0.984,       11.91, 1.06, 0.94, 1.06, 0.94
    17, 'Sorenson  V2',       138, 1,    1,    1, 1,       0.995,       13.74, 1.06, 0.94, 1.06, 0.94
    18, 'McKinley  V2',       138, 2,    1,    1, 1,       0.973,       11.53, 1.06, 0.94, 1.06, 0.94
    19, 'Lincoln   V2',       138, 2,    1,    1, 1,       0.963,       11.05, 1.06, 0.94, 1.06, 0.94
    20, 'Adams     V2',       138, 1,    1,    1, 1,       0.958,       11.93, 1.06, 0.94, 1.06, 0.94
    21, 'Jay       V2',       138, 1,    1,    1, 1,       0.959,       13.52, 1.06, 0.94, 1.06, 0.94
    22, 'Randolph  V2',       138, 1,    1,    1, 1,        0.97,       16.08, 1.06, 0.94, 1.06, 0.94
    23, 'CollCrnr  V2',       138, 1,    1,    1, 1,           1,          21, 1.06, 0.94, 1.06, 0.94
    24, 'Trenton   V2',       138, 2,    1,    1, 1,       0.992,       20.89, 1.06, 0.94, 1.06, 0.94
    25, 'TannrsCk  V2',       138, 2,    1,    1, 1,        1.05,       27.93, 1.06, 0.94, 1.06, 0.94
    26, 'TannrsCk  V1',       345, 2,    1,    1, 1,       1.015,       29.71, 1.06, 0.94, 1.06, 0.94
    27, 'Madison   V2',       138, 2,    1,    1, 1,       0.968,       15.35, 1.06, 0.94, 1.06, 0.94
    28, 'Mullin    V2',       138, 1,    1,    1, 1,       0.962,       13.62, 1.06, 0.94, 1.06, 0.94
    29, 'Grant     V2',       138, 1,    1,    1, 1,       0.963,       12.63, 1.06, 0.94, 1.06, 0.94
    30, 'Sorenson  V1',       345, 1,    1,    1, 1,       0.968,       18.79, 1.06, 0.94, 1.06, 0.94
    31, 'DeerCrk   V2',       138, 2,    1,    1, 1,       0.967,       12.75, 1.06, 0.94, 1.06, 0.94
    32, 'Delaware  V2',       138, 2,    1,    1, 1,       0.964,        14.8, 1.06, 0.94, 1.06, 0.94
    33, 'Haviland  V2',       138, 1,    1,    1, 1,       0.972,       10.63, 1.06, 0.94, 1.06, 0.94
    34, 'Rockhill  V2',       138, 2,    1,    1, 1,       0.986,        11.3, 1.06, 0.94, 1.06, 0.94
    35, 'WestLima  V2',       138, 1,    1,    1, 1,       0.981,       10.87, 1.06, 0.94, 1.06, 0.94
    36, 'Sterling  V2',       138, 2,    1,    1, 1,        0.98,       10.87, 1.06, 0.94, 1.06, 0.94
    37, 'EastLima  V2',       138, 1,    1,    1, 1,       0.992,       11.77, 1.06, 0.94, 1.06, 0.94
    38, 'EastLima  V1',       345, 1,    1,    1, 1,       0.962,       16.91, 1.06, 0.94, 1.06, 0.94
    39, 'NwLibrty  V2',       138, 1,    1,    1, 1,        0.97,        8.41, 1.06, 0.94, 1.06, 0.94
    40, 'West End  V2',       138, 2,    1,    1, 1,        0.97,        7.35, 1.06, 0.94, 1.06, 0.94
    41, 'S.Tiffin  V2',       138, 1,    1,    1, 1,       0.967,        6.92, 1.06, 0.94, 1.06, 0.94
    42, 'Howard    V2',       138, 2,    1,    1, 1,       0.985,        8.53, 1.06, 0.94, 1.06, 0.94
    43, 'S.Kenton  V2',       138, 1,    1,    1, 1,       0.978,       11.28, 1.06, 0.94, 1.06, 0.94
    44, 'WMVernon  V2',       138, 1,    1,    1, 1,       0.985,       13.82, 1.06, 0.94, 1.06, 0.94
    45, 'N.Newark  V2',       138, 1,    1,    1, 1,       0.987,       15.67, 1.06, 0.94, 1.06, 0.94
    46, 'W.Lancst  V2',       138, 2,    1,    1, 1,       1.005,       18.49, 1.06, 0.94, 1.06, 0.94
    47, 'Crooksvl  V2',       138, 1,    1,    1, 1,       1.017,       20.73, 1.06, 0.94, 1.06, 0.94
    48, 'Zanesvll  V2',       138, 1,    1,    1, 1,       1.021,       19.93, 1.06, 0.94, 1.06, 0.94
    49, 'Philo     V2',       138, 2,    1,    1, 1,       1.025,       20.94, 1.06, 0.94, 1.06, 0.94
    50, 'WCambrdg  V2',       138, 1,    1,    1, 1,       1.001,        18.9, 1.06, 0.94, 1.06, 0.94
    51, 'Newcmrst  V2',       138, 1,    1,    1, 1,       0.967,       16.28, 1.06, 0.94, 1.06, 0.94
    52, 'SCoshoct  V2',       138, 1,    1,    1, 1,       0.957,       15.32, 1.06, 0.94, 1.06, 0.94
    53, 'Wooster   V2',       138, 1,    1,    1, 1,       0.946,       14.35, 1.06, 0.94, 1.06, 0.94
    54, 'Torrey    V2',       138, 2,    1,    1, 1,       0.955,       15.26, 1.06, 0.94, 1.06, 0.94
    55, 'Wagenhls  V2',       138, 2,    1,    1, 1,       0.952,       14.97, 1.06, 0.94, 1.06, 0.94
    56, 'Sunnysde  V2',       138, 2,    1,    1, 1,       0.954,       15.16, 1.06, 0.94, 1.06, 0.94
    57, 'WNwPhil1  V2',       138, 1,    1,    1, 1,       0.971,       16.36, 1.06, 0.94, 1.06, 0.94
    58, 'WNwPhil2  V2',       138, 1,    1,    1, 1,       0.959,       15.51, 1.06, 0.94, 1.06, 0.94
    59, 'Tidd      V2',       138, 2,    1,    1, 1,       0.985,       19.37, 1.06, 0.94, 1.06, 0.94
    60, 'SWKammer  V2',       138, 1,    1,    1, 1,       0.993,       23.15, 1.06, 0.94, 1.06, 0.94
    61, 'W.Kammer  V2',       138, 2,    1,    1, 1,       0.995,       24.04, 1.06, 0.94, 1.06, 0.94
    62, 'Natrium   V2',       138, 2,    1,    1, 1,       0.998,       23.43, 1.06, 0.94, 1.06, 0.94
    63, 'Tidd      V1',       345, 1,    1,    1, 1,       0.969,       22.75, 1.06, 0.94, 1.06, 0.94
    64, 'Kammer    V1',       345, 1,    1,    1, 1,       0.984,       24.52, 1.06, 0.94, 1.06, 0.94
    65, 'Muskngum  V1',       345, 2,    1,    1, 1,       1.005,       27.65, 1.06, 0.94, 1.06, 0.94
    66, 'Muskngum  V2',       138, 2,    1,    1, 1,        1.05,       27.48, 1.06, 0.94, 1.06, 0.94
    67, 'Summerfl  V2',       138, 1,    1,    1, 1,        1.02,       24.84, 1.06, 0.94, 1.06, 0.94
    68, 'Sporn     V1',       345, 1,    1,    1, 1,       1.003,       27.55, 1.06, 0.94, 1.06, 0.94
    69, 'Sporn     V2',       138, 3,    1,    1, 1,       1.035,          30, 1.06, 0.94, 1.06, 0.94
    70, 'Portsmth  V2',       138, 2,    1,    1, 1,       0.984,       22.58, 1.06, 0.94, 1.06, 0.94
    71, 'NPortsmt  V2',       138, 1,    1,    1, 1,       0.987,       22.15, 1.06, 0.94, 1.06, 0.94
    72, 'Hillsbro  V2',       138, 2,    1,    1, 1,        0.98,       20.98, 1.06, 0.94, 1.06, 0.94
    73, 'Sargents  V2',       138, 2,    1,    1, 1,       0.991,       21.94, 1.06, 0.94, 1.06, 0.94
    74, 'Bellefnt  V2',       138, 2,    1,    1, 1,       0.958,       21.64, 1.06, 0.94, 1.06, 0.94
    75, 'SthPoint  V2',       138, 1,    1,    1, 1,       0.967,       22.91, 1.06, 0.94, 1.06, 0.94
    76, 'Darrah    V2',       138, 2,    1,    1, 1,       0.943,       21.77, 1.06, 0.94, 1.06, 0.94
    77, 'Turner    V2',       138, 2,    1,    1, 1,       1.006,       26.72, 1.06, 0.94, 1.06, 0.94
    78, 'Chemical  V2',       138, 1,    1,    1, 1,       1.003,       26.42, 1.06, 0.94, 1.06, 0.94
    79, 'CapitlHl  V2',       138, 1,    1,    1, 1,       1.009,       26.72, 1.06, 0.94, 1.06, 0.94
    80, 'CabinCrk  V2',       138, 2,    1,    1, 1,        1.04,       28.96, 1.06, 0.94, 1.06, 0.94
    81, 'Kanawha   V1',       345, 1,    1,    1, 1,       0.997,        28.1, 1.06, 0.94, 1.06, 0.94
    82, 'Logan     V2',       138, 1,    1,    1, 1,       0.989,       27.24, 1.06, 0.94, 1.06, 0.94
    83, 'Sprigg    V2',       138, 1,    1,    1, 1,       0.985,       28.42, 1.06, 0.94, 1.06, 0.94
    84, 'BetsyLne  V2',       138, 1,    1,    1, 1,        0.98,       30.95, 1.06, 0.94, 1.06, 0.94
    85, 'BeaverCk  V2',       138, 2,    1,    1, 1,       0.985,       32.51, 1.06, 0.94, 1.06, 0.94
    86, 'Hazard    V2',       138, 1,    1,    1, 1,       0.987,       31.14, 1.06, 0.94, 1.06, 0.94
    87, 'Pinevlle  V3',       161, 2,    1,    1, 1,       1.015,        31.4, 1.06, 0.94, 1.06, 0.94
    88, 'Fremont   V2',       138, 1,    1,    1, 1,       0.987,       35.64, 1.06, 0.94, 1.06, 0.94
    89, 'ClinchRv  V2',       138, 2,    1,    1, 1,       1.005,       39.69, 1.06, 0.94, 1.06, 0.94
    90, 'Holston   V2',       138, 2,    1,    1, 1,       0.985,       33.29, 1.06, 0.94, 1.06, 0.94
    91, 'HolstonT  V2',       138, 2,    1,    1, 1,        0.98,       33.31, 1.06, 0.94, 1.06, 0.94
    92, 'Saltvlle  V2',       138, 2,    1,    1, 1,       0.993,        33.8, 1.06, 0.94, 1.06, 0.94
    93, 'Tazewell  V2',       138, 1,    1,    1, 1,       0.987,       30.79, 1.06, 0.94, 1.06, 0.94
    94, 'Switchbk  V2',       138, 1,    1,    1, 1,       0.991,       28.64, 1.06, 0.94, 1.06, 0.94
    95, 'Caldwell  V2',       138, 1,    1,    1, 1,       0.981,       27.67, 1.06, 0.94, 1.06, 0.94
    96, 'Baileysv  V2',       138, 1,    1,    1, 1,       0.993,       27.51, 1.06, 0.94, 1.06, 0.94
    97, 'Sundial   V2',       138, 1,    1,    1, 1,       1.011,       27.88, 1.06, 0.94, 1.06, 0.94
    98, 'Bradley   V2',       138, 1,    1,    1, 1,       1.024,        27.4, 1.06, 0.94, 1.06, 0.94
    99, 'Hinton    V2',       138, 2,    1,    1, 1,        1.01,       27.04, 1.06, 0.94, 1.06, 0.94
   100, 'Glen Lyn  V2',       138, 2,    1,    1, 1,       1.017,       28.03, 1.06, 0.94, 1.06, 0.94
   101, 'Wythe     V2',       138, 1,    1,    1, 1,       0.993,       29.61, 1.06, 0.94, 1.06, 0.94
   102, 'Smythe    V2',       138, 1,    1,    1, 1,       0.991,        32.3, 1.06, 0.94, 1.06, 0.94
   103, 'Claytor   V2',       138, 2,    1,    1, 1,       1.001,       24.44, 1.06, 0.94, 1.06, 0.94
   104, 'Hancock   V2',       138, 2,    1,    1, 1,       0.971,       21.69, 1.06, 0.94, 1.06, 0.94
   105, 'Roanoke   V2',       138, 2,    1,    1, 1,       0.965,       20.57, 1.06, 0.94, 1.06, 0.94
   106, 'Cloverdl  V2',       138, 1,    1,    1, 1,       0.962,       20.32, 1.06, 0.94, 1.06, 0.94
   107, 'Reusens   V2',       138, 2,    1,    1, 1,       0.952,       17.53, 1.06, 0.94, 1.06, 0.94
   108, 'Blaine    V2',       138, 1,    1,    1, 1,       0.967,       19.38, 1.06, 0.94, 1.06, 0.94
   109, 'Franklin  V2',       138, 1,    1,    1, 1,       0.967,       18.93, 1.06, 0.94, 1.06, 0.94
   110, 'Fieldale  V2',       138, 2,    1,    1, 1,       0.973,       18.09, 1.06, 0.94, 1.06, 0.94
   111, 'DanRiver  V2',       138, 2,    1,    1, 1,        0.98,       19.74, 1.06, 0.94, 1.06, 0.94
   112, 'Danville  V2',       138, 2,    1,    1, 1,       0.975,       14.99, 1.06, 0.94, 1.06, 0.94
   113, 'Deer Crk  V2',       138, 2,    1,    1, 1,       0.993,       13.74, 1.06, 0.94, 1.06, 0.94
   114, 'WMedford  V2',       138, 1,    1,    1, 1,        0.96,       14.46, 1.06, 0.94, 1.06, 0.94
   115, 'Medford   V2',       138, 1,    1,    1, 1,        0.96,       14.46, 1.06, 0.94, 1.06, 0.94
   116, 'KygerCrk  V2',       138, 2,    1,    1, 1,       1.005,       27.12, 1.06, 0.94, 1.06, 0.94
   117, 'Corey     V2',       138, 1,    1,    1, 1,       0.974,       10.67, 1.06, 0.94, 1.06, 0.94
   118, 'WHuntngd  V2',       138, 1,    1,    1, 1,       0.949,       21.92, 1.06, 0.94, 1.06, 0.94
0 / END OF BUS DATA, BEGIN LOAD DATA
     1,  1, 1,    1,    1,        51,        27, 0, 0, 0, 0, 1, 1, 0
     2,  1, 1,    1,    1,        20,         9, 0, 0, 0, 0, 1, 1, 0
     3,  1, 1,    1,    1,        39,        10, 0, 0, 0, 0, 1, 1, 0
     4,  1, 1,    1,    1,        39,        12, 0, 0, 0, 0, 1, 1, 0
     6,  1, 1,    1,    1,        52,        22, 0, 0, 0, 0, 1, 1, 0
     7,  1, 1,    1,    1,        19,         2, 0, 0, 0, 0, 1, 1, 0
     8,  1, 1,    1,    1,        28,         0, 0, 0, 0, 0, 1, 1, 0
    11,  1, 1,    1,    1,        70,        23, 0, 0, 0, 0, 1, 1, 0
    12,  1, 1,    1,    1,        47,        10, 0, 0, 0, 0, 1, 1, 0
    13,  1, 1,    1,    1,        34,        16, 0, 0, 0, 0, 1, 1, 0
    14,  1, 1,    1,    1,        14,         1, 0, 0, 0, 0, 1, 1, 0
    15,  1, 1,    1,    1,        90,        30, 0, 0, 0, 0, 1, 1, 0
    16,  1, 1,    1,    1,        25,        10, 0, 0, 0, 0, 1, 1, 0
    17,  1, 1,    1,    1,        11,         3, 0, 0, 0, 0, 1, 1, 0
    18,  1, 1,    1,    1,        60,        34, 0, 0, 0, 0, 1, 1, 0
    19,  1, 1,    1,    1,        45,        25, 0, 0, 0, 0, 1, 1, 0
    20,  1, 1,    1,    1,        18,         3, 0, 0, 0, 0, 1, 1, 0
    21,  1, 1,    1,    1,        14,         8, 0, 0, 0, 0, 1, 1, 0
    22,  1, 1,    1,    1,        10,         5, 0, 0, 0, 0, 1, 1, 0
    23,  1, 1,    1,    1,         7,         3, 0, 0, 0, 0, 1, 1, 0
    24,  1, 1,    1,    1,        13,         0, 0, 0, 0, 0, 1, 1, 0
    27,  1, 1,    1,    1,        71,        13, 0, 0, 0, 0, 1, 1, 0
    28,  1, 1,    1,    1,        17,         7, 0, 0, 0, 0, 1, 1, 0
    29,  1, 1,    1,    1,        24,         4, 0, 0, 0, 0, 1, 1, 0
    31,  1, 1,    1,    1,        43,        27, 0, 0, 0, 0, 1, 1, 0
    32,  1, 1,    1,    1,        59,        23, 0, 0, 0, 0, 1, 1, 0
    33,  1, 1,    1,    1,        23,         9, 0, 0, 0, 0, 1, 1, 0
    34,  1, 1,    1,    1,        59,        26, 0, 0, 0, 0, 1, 1, 0
    35,  1, 1,    1,    1,        33,         9, 0, 0, 0, 0, 1, 1, 0
    36,  1, 1,    1,    1,        31,        17, 0, 0, 0, 0, 1, 1, 0
    39,  1, 1,    1,    1,        27,        11, 0, 0, 0, 0, 1, 1, 0
    40,  1, 1,    1,    1,        66,        23, 0, 0, 0, 0, 1, 1, 0
    41,  1, 1,    1,    1,        37,        10, 0, 0, 0, 0, 1, 1, 0
    42,  1, 1,    1,    1,        96,        23, 0, 0, 0, 0, 1, 1, 0
    43,  1, 1,    1,    1,        18,         7, 0, 0, 0, 0, 1, 1, 0
    44,  1, 1,    1,    1,        16,         8, 0, 0, 0, 0, 1, 1, 0
    45,  1, 1,    1,    1,        53,        22, 0, 0, 0, 0, 1, 1, 0
    46,  1, 1,    1,    1,        28,        10, 0, 0, 0, 0, 1, 1, 0
    47,  1, 1,    1,    1,        34,         0, 0, 0, 0, 0, 1, 1, 0
    48,  1, 1,    1,    1,        20,        11, 0, 0, 0, 0, 1, 1, 0
    49,  1, 1,    1,    1,        87,        30, 0, 0, 0, 0, 1, 1, 0
    50,  1, 1,    1,    1,        17,         4, 0, 0, 0, 0, 1, 1, 0
    51,  1, 1,    1,    1,        17,         8, 0, 0, 0, 0, 1, 1, 0
    52,  1, 1,    1,    1,        18,         5, 0, 0, 0, 0, 1, 1, 0
    53,  1, 1,    1,    1,        23,        11, 0, 0, 0, 0, 1, 1, 0
    54,  1, 1,    1,    1,       113,        32, 0, 0, 0, 0, 1, 1, 0
    55,  1, 1,    1,    1,        63,        22, 0, 0, 0, 0, 1, 1, 0
    56,  1, 1,    1,    1,        84,        18, 0, 0, 0, 0, 1, 1, 0
    57,  1, 1,    1,    1,        12,         3, 0, 0, 0, 0, 1, 1, 0
    58,  1, 1,    1,    1,        12,         3, 0, 0, 0, 0, 1, 1, 0
    59,  1, 1,    1,    1,       277,       113, 0, 0, 0, 0, 1, 1, 0
    60,  1, 1,    1,    1,        78,         3, 0, 0, 0, 0, 1, 1, 0
    62,  1, 1,    1,    1,        77,        14, 0, 0, 0, 0, 1, 1, 0
    66,  1, 1,    1,    1,        39,        18, 0, 0, 0, 0, 1, 1, 0
    67,  1, 1,    1,    1,        28,         7, 0, 0, 0, 0, 1, 1, 0
    70,  1, 1,    1,    1,        66,        20, 0, 0, 0, 0, 1, 1, 0
    72,  1, 1,    1,    1,        12,         0, 0, 0, 0, 0, 1, 1, 0
    73,  1, 1,    1,    1,         6,         0, 0, 0, 0, 0, 1, 1, 0
    74,  1, 1,    1,    1,        68,        27, 0, 0, 0, 0, 1, 1, 0
    75,  1, 1,    1,    1,        47,        11, 0, 0, 0, 0, 1, 1, 0
    76,  1, 1,    1,    1,        68,        36, 0, 0, 0, 0, 1, 1, 0
    77,  1, 1,    1,    1,        61,        28, 0, 0, 0, 0, 1, 1, 0
    78,  1, 1,    1,    1,        71,        26, 0, 0, 0, 0, 1, 1, 0
    79,  1, 1,    1,    1,        39,        32, 0, 0, 0, 0, 1, 1, 0
    80,  1, 1,    1,    1,       130,        26, 0, 0, 0, 0, 1, 1, 0
    82,  1, 1,    1,    1,        54,        27, 0, 0, 0, 0, 1, 1, 0
    83,  1, 1,    1,    1,        20,        10, 0, 0, 0, 0, 1, 1, 0
    84,  1, 1,    1,    1,        11,         7, 0, 0, 0, 0, 1, 1, 0
    85,  1, 1,    1,    1,        24,        15, 0, 0, 0, 0, 1, 1, 0
    86,  1, 1,    1,    1,        21,        10, 0, 0, 0, 0, 1, 1, 0
    88,  1, 1,    1,    1,        48,        10, 0, 0, 0, 0, 1, 1, 0
    90,  1, 1,    1,    1,       163,        42, 0, 0, 0, 0, 1, 1, 0
    91,  1, 1,    1,    1,        10,         0, 0, 0, 0, 0, 1, 1, 0
    92,  1, 1,    1,    1,        65,        10, 0, 0, 0, 0, 1, 1, 0
    93,  1, 1,    1,    1,        12,         7, 0, 0, 0, 0, 1, 1, 0
    94,  1, 1,    1,    1,        30,        16, 0, 0, 0, 0, 1, 1, 0
    95,  1, 1,    1,    1,        42,        31, 0, 0, 0, 0, 1, 1, 0
    96,  1, 1,    1,    1,        38,        15, 0, 0, 0, 0, 1, 1, 0
    97,  1, 1,    1,    1,        15,         9, 0, 0, 0, 0, 1, 1, 0
    98,  1, 1,    1,    1,        34,         8, 0, 0, 0, 0, 1, 1, 0
    99,  1, 1,    1,    1,        42,         0, 0, 0, 0, 0, 1, 1, 0
   100,  1, 1,    1,    1,        37,        18, 0, 0, 0, 0, 1, 1, 0
   101,  1, 1,    1,    1,        22,        15, 0, 0, 0, 0, 1, 1, 0
   102,  1, 1,    1,    1,         5,         3, 0, 0, 0, 0, 1, 1, 0
   103,  1, 1,    1,    1,        23,        16, 0, 0, 0, 0, 1, 1, 0
   104,  1, 1,    1,    1,        38,        25, 0, 0, 0, 0, 1, 1, 0
   105,  1, 1,    1,    1,        31,        26, 0, 0, 0, 0, 1, 1, 0
   106,  1, 1,    1,    1,        43,        16, 0, 0, 0, 0, 1, 1, 0
   107,  1, 1,    1,    1,        50,        12, 0, 0, 0, 0, 1, 1, 0
   108,  1, 1,    1,    1,         2,         1, 0, 0, 0, 0, 1, 1, 0
   109,  1, 1,    1,    1,         8,         3, 0, 0, 0, 0, 1, 1, 0
   110,  1, 1,    1,    1,        39,        30, 0, 0, 0, 0, 1, 1, 0
   112,  1, 1,    1,    1,        68,        13, 0, 0, 0, 0, 1, 1, 0
   113,  1, 1,    1,    1,         6,         0, 0, 0, 0, 0, 1, 1, 0
   114,  1, 1,    1,    1,         8,         3, 0, 0, 0, 0, 1, 1, 0
   115,  1, 1,    1,    1,        22,         7, 0, 0, 0, 0, 1, 1, 0
   116,  1, 1,    1,    1,       184,         0, 0, 0, 0, 0, 1, 1, 0
   117,  1, 1,    1,    1,        20,         8, 0, 0, 0, 0, 1, 1, 0
   118,  1, 1,    1,    1,        33,        15, 0, 0, 0, 0, 1, 1, 0
0 / END OF LOAD DATA, BEGIN FIXED SHUNT DATA
     5, 1, 1,       0,     -40
    34, 1, 1,       0,      14
    37, 1, 1,       0,     -25
    44, 1, 1,       0,      10
    45, 1, 1,       0,      10
    46, 1, 1,       0,      10
    48, 1, 1,       0,      15
    74, 1, 1,       0,      12
    79, 1, 1,       0,      20
    82, 1, 1,       0,      20
    83, 1, 1,       0,      10
   105, 1, 1,       0,      20
   107, 1, 1,       0,       6
   110, 1, 1,       0,       6
0 / END OF FIXED SHUNT DATA, BEGIN GENERATOR DATA
     1,  1,         0,         0,        15,        -5,    0.955, 0,     100, 0, 1, 0, 0, 1, 1, 100,       100,         0, 1, 1, 0, 1, 0, 1, 0, 1, 0, 1
     4,  1,         0,         0,       300,      -300,    0.998, 0,     100, 0, 1, 0, 0, 1, 1, 100,       100,         0, 1, 1, 0, 1, 0, 1, 0, 1, 0, 1
     6,  1,         0,         0,        50,       -13,     0.99, 0,     100, 0, 1, 0, 0, 1, 1, 100,       100,         0, 1, 1, 0, 1, 0, 1, 0, 1, 0, 1
     8,  1,         0,         0,       300,      -300,    1.015, 0,     100, 0, 1, 0, 0, 1, 1, 100,       100,         0, 1, 1, 0, 1, 0, 1, 0, 1, 0, 1
    10,  1,       450,         0,       200,      -147,     1.05, 0,     100, 0, 1, 0, 0, 1, 1, 100,       550,         0, 1, 1, 0, 1, 0, 1, 0, 1, 0, 1
    12,  1,        85,         0,       120,       -35,     0.99, 0,     100, 0, 1, 0, 0, 1, 1, 100,       185,         0, 1, 1, 0, 1, 0, 1, 0, 1, 0, 1
    15,  1,         0,         0,        30,       -10,     0.97, 0,     100, 0, 1, 0, 0, 1, 1, 100,       100,         0, 1, 1, 0, 1, 0, 1, 0, 1, 0, 1
    18,  1,         0,         0,        50,       -16,    0.973, 0,     100, 0, 1, 0, 0, 1, 1, 100,       100,         0, 1, 1, 0, 1, 0, 1, 0, 1, 0, 1
    19,  1,         0,         0,        24,        -8,    0.962, 0,     100, 0, 1, 0, 0, 1, 1, 100,       100,         0, 1, 1, 0, 1, 0, 1, 0, 1, 0, 1
    24,  1,         0,         0,       300,      -300,    0.992, 0,     100, 0, 1, 0, 0, 1, 1, 100,       100,         0, 1, 1, 0, 1, 0, 1, 0, 1, 0, 1
    25,  1,       220,         0,       140,       -47,     1.05, 0,     100, 0, 1, 0, 0, 1, 1, 100,       320,         0, 1, 1, 0, 1, 0, 1, 0, 1, 0, 1
    26,  1,       314,         0,      1000,     -1000,    1.015, 0,     100, 0, 1, 0, 0, 1, 1, 100,       414,         0, 1, 1, 0, 1, 0, 1, 0, 1, 0, 1
    27,  1,         0,         0,       300,      -300,    0.968, 0,     100, 0, 1, 0, 0, 1, 1, 100,       100,         0, 1, 1, 0, 1, 0, 1, 0, 1, 0, 1
    31,  1,         7,         0,       300,      -300,    0.967, 0,     100, 0, 1, 0, 0, 1, 1, 100,       107,         0, 1, 1, 0, 1, 0, 1, 0, 1, 0, 1
    32,  1,         0,         0,        42,       -14,    0.963, 0,     100, 0, 1, 0, 0, 1, 1, 100,       100,         0, 1, 1, 0, 1, 0, 1, 0, 1, 0, 1
    34,  1,         0,         0,        24,        -8,    0.984, 0,     100, 0, 1, 0, 0, 1, 1, 100,       100,         0, 1, 1, 0, 1, 0, 1, 0, 1, 0, 1
    36,  1,         0,         0,        24,        -8,     0.98, 0,     100, 0, 1, 0, 0, 1, 1, 100,       100,         0, 1, 1, 0, 1, 0, 1, 0, 1, 0, 1
    40,  1,         0,         0,       300,      -300,     0.97, 0,     100, 0, 1, 0, 0, 1, 1, 100,       100,         0, 1, 1, 0, 1, 0, 1, 0, 1, 0, 1
    42,  1,         0,         0,       300,      -300,    0.985, 0,     100, 0, 1, 0, 0, 1, 1, 100,       100,         0, 1, 1, 0, 1, 0, 1, 0, 1, 0, 1
    46,  1,        19,         0,       100,      -100,    1.005, 0,     100, 0, 1, 0, 0, 1, 1, 100,       119,         0, 1, 1, 0, 1, 0, 1, 0, 1, 0, 1
    49,  1,       204,         0,       210,       -85,    1.025, 0,     100, 0, 1, 0, 0, 1, 1, 100,       304,         0, 1, 1, 0, 1, 0, 1, 0, 1, 0, 1
    54,  1,        48,         0,       300,      -300,    0.955, 0,     100, 0, 1, 0, 0, 1, 1, 100,       148,         0, 1, 1, 0, 1, 0, 1, 0, 1, 0, 1
    55,  1,         0,         0,        23,        -8,    0.952, 0,     100, 0, 1, 0, 0, 1, 1, 100,       100,         0, 1, 1, 0, 1, 0, 1, 0, 1, 0, 1
    56,  1,         0,         0,        15,        -8,    0.954, 0,     100, 0, 1, 0, 0, 1, 1, 100,       100,         0, 1, 1, 0, 1, 0, 1, 0, 1, 0, 1
    59,  1,       155,         0,       180,       -60,    0.985, 0,     100, 0, 1, 0, 0, 1, 1, 100,       255,         0, 1, 1, 0, 1, 0, 1, 0, 1, 0, 1
    61,  1,       160,         0,       300,      -100,    0.995, 0,     100, 0, 1, 0, 0, 1, 1, 100,       260,         0, 1, 1, 0, 1, 0, 1, 0, 1, 0, 1
    62,  1,         0,         0,        20,       -20,    0.998, 0,     100, 0, 1, 0, 0, 1, 1, 100,       100,         0, 1, 1, 0, 1, 0, 1, 0, 1, 0, 1
    65,  1,       391,         0,       200,       -67,    1.005, 0,     100, 0, 1, 0, 0, 1, 1, 100,       491,         0, 1, 1, 0, 1, 0, 1, 0, 1, 0, 1
    66,  1,       392,         0,       200,       -67,     1.05, 0,     100, 0, 1, 0, 0, 1, 1, 100,       492,         0, 1, 1, 0, 1, 0, 1, 0, 1, 0, 1
    69,  1,     516.4,         0,       300,      -300,    1.035, 0,     100, 0, 1, 0, 0, 1, 1, 100,     805.2,         0, 1, 1, 0, 1, 0, 1, 0, 1, 0, 1
    70,  1,         0,         0,        32,       -10,    0.984, 0,     100, 0, 1, 0, 0, 1, 1, 100,       100,         0, 1, 1, 0, 1, 0, 1, 0, 1, 0, 1
    72,  1,         0,         0,       100,      -100,     0.98, 0,     100, 0, 1, 0, 0, 1, 1, 100,       100,         0, 1, 1, 0, 1, 0, 1, 0, 1, 0, 1
    73,  1,         0,         0,       100,      -100,    0.991, 0,     100, 0, 1, 0, 0, 1, 1, 100,       100,         0, 1, 1, 0, 1, 0, 1, 0, 1, 0, 1
    74,  1,         0,         0,         9,        -6,    0.958, 0,     100, 0, 1, 0, 0, 1, 1, 100,       100,         0, 1, 1, 0, 1, 0, 1, 0, 1, 0, 1
    76,  1,         0,         0,        23,        -8,    0.943, 0,     100, 0, 1, 0, 0, 1, 1, 100,       100,         0, 1, 1, 0, 1, 0, 1, 0, 1, 0, 1
    77,  1,         0,         0,        70,       -20,    1.006, 0,     100, 0, 1, 0, 0, 1, 1, 100,       100,         0, 1, 1, 0, 1, 0, 1, 0, 1, 0, 1
    80,  1,       477,         0,       280,      -165,     1.04, 0,     100, 0, 1, 0, 0, 1, 1, 100,       577,         0, 1, 1, 0, 1, 0, 1, 0, 1, 0, 1
    85,  1,         0,         0,        23,        -8,    0.985, 0,     100, 0, 1, 0, 0, 1, 1, 100,       100,         0, 1, 1, 0, 1, 0, 1, 0, 1, 0, 1
    87,  1,         4,         0,      1000,      -100,    1.015, 0,     100, 0, 1, 0, 0, 1, 1, 100,       104,         0, 1, 1, 0, 1, 0, 1, 0, 1, 0, 1
    89,  1,       607,         0,       300,      -210,    1.005, 0,     100, 0, 1, 0, 0, 1, 1, 100,       707,         0, 1, 1, 0, 1, 0, 1, 0, 1, 0, 1
    90,  1,         0,         0,       300,      -300,    0.985, 0,     100, 0, 1, 0, 0, 1, 1, 100,       100,         0, 1, 1, 0, 1, 0, 1, 0, 1, 0, 1
    91,  1,         0,         0,       100,      -100,     0.98, 0,     100, 0, 1, 0, 0, 1, 1, 100,       100,         0, 1, 1, 0, 1, 0, 1, 0, 1, 0, 1
    92,  1,         0,         0,         9,        -3,     0.99, 0,     100, 0, 1, 0, 0, 1, 1, 100,       100,         0, 1, 1, 0, 1, 0, 1, 0, 1, 0, 1
    99,  1,         0,         0,       100,      -100,     1.01, 0,     100, 0, 1, 0, 0, 1, 1, 100,       100,         0, 1, 1, 0, 1, 0, 1, 0, 1, 0, 1
   100,  1,       252,         0,       155,       -50,    1.017, 0,     100, 0, 1, 0, 0, 1, 1, 100,       352,         0, 1, 1, 0, 1, 0, 1, 0, 1, 0, 1
   103,  1,        40,         0,        40,       -15,     1.01, 0,     100, 0, 1, 0, 0, 1, 1, 100,       140,         0, 1, 1, 0, 1, 0, 1, 0, 1, 0, 1
   104,  1,         0,         0,        23,        -8,    0.971, 0,     100, 0, 1, 0, 0, 1, 1, 100,       100,         0, 1, 1, 0, 1, 0, 1, 0, 1, 0, 1
   105,  1,         0,         0,        23,        -8,    0.965, 0,     100, 0, 1, 0, 0, 1, 1, 100,       100,         0, 1, 1, 0, 1, 0, 1, 0, 1, 0, 1
   107,  1,         0,         0,       200,      -200,    0.952, 0,     100, 0, 1, 0, 0, 1, 1, 100,       100,         0, 1, 1, 0, 1, 0, 1, 0, 1, 0, 1
   110,  1,         0,         0,        23,        -8,    0.973, 0,     100, 0, 1, 0, 0, 1, 1, 100,       100,         0, 1, 1, 0, 1, 0, 1, 0, 1, 0, 1
   111,  1,        36,         0,      1000,      -100,     0.98, 0,     100, 0, 1, 0, 0, 1, 1, 100,       136,         0, 1, 1, 0, 1, 0, 1, 0, 1, 0, 1
   112,  1,         0,         0,      1000,      -100,    0.975, 0,     100, 0, 1, 0, 0, 1, 1, 100,       100,         0, 1, 1, 0, 1, 0, 1, 0, 1, 0, 1
   113,  1,         0,         0,       200,      -100,    0.993, 0,     100, 0, 1, 0, 0, 1, 1, 100,       100,         0, 1, 1, 0, 1, 0, 1, 0, 1, 0, 1
   116,  1,         0,         0,      1000,     -1000,    1.005, 0,     100, 0, 1, 0, 0, 1, 1, 100,       100,         0, 1, 1, 0, 1, 0, 1, 0, 1, 0, 1
0 / END OF GENERATOR DATA, BEGIN BRANCH DATA
     1,      2, 1,   0.0303,   0.0999,   0.0254,       0,       0,       0, 0, 0, 0, 0, 1, 1, 0, 1, 1, 0, 1, 0, 1, 0, 1
     1,      3, 1,   0.0129,   0.0424,  0.01082,       0,       0,       0, 0, 0, 0, 0, 1, 1, 0, 1, 1, 0, 1, 0, 1, 0, 1
     4,      5, 1,  0.00176,  0.00798,   0.0021,       0,       0,       0, 0, 0, 0, 0, 1, 1, 0, 1, 1, 0, 1, 0, 1, 0, 1
     3,      5, 1,   0.0241,    0.108,   0.0284,       0,       0,       0, 0, 0, 0, 0, 1, 1, 0, 1, 1, 0, 1, 0, 1, 0, 1
     5,      6, 1,   0.0119,    0.054,  0.01426,       0,       0,       0, 0, 0, 0, 0, 1, 1, 0, 1, 1, 0, 1, 0, 1, 0, 1
     6,      7, 1,  0.00459,   0.0208,   0.0055,       0,       0,       0, 0, 0, 0, 0, 1, 1, 0, 1, 1, 0, 1, 0, 1, 0, 1
     8,      9, 1,  0.00244,   0.0305,    1.162,       0,       0,       0, 0, 0, 0, 0, 1, 1, 0, 1, 1, 0, 1, 0, 1, 0, 1
     9,     10, 1,  0.00258,   0.0322,     1.23,       0,       0,       0, 0, 0, 0, 0, 1, 1, 0, 1, 1, 0, 1, 0, 1, 0, 1
     4,     11, 1,   0.0209,   0.0688,  0.01748,       0,       0,       0, 0, 0, 0, 0, 1, 1, 0, 1, 1, 0, 1, 0, 1, 0, 1
     5,     11, 1,   0.0203,   0.0682,  0.01738,       0,       0,       0, 0, 0, 0, 0, 1, 1, 0, 1, 1, 0, 1, 0, 1, 0, 1
    11,     12, 1,  0.00595,   0.0196,  0.00502,       0,       0,       0, 0, 0, 0, 0, 1, 1, 0, 1, 1, 0, 1, 0, 1, 0, 1
     2,     12, 1,   0.0187,   0.0616,  0.01572,       0,       0,       0, 0, 0, 0, 0, 1, 1, 0, 1, 1, 0, 1, 0, 1, 0, 1
     3,     12, 1,   0.0484,     0.16,   0.0406,       0,       0,       0, 0, 0, 0, 0, 1, 1, 0, 1, 1, 0, 1, 0, 1, 0, 1
     7,     12, 1,  0.00862,    0.034,  0.00874,       0,       0,       0, 0, 0, 0, 0, 1, 1, 0, 1, 1, 0, 1, 0, 1, 0, 1
    11,     13, 1,  0.02225,   0.0731,  0.01876,       0,       0,       0, 0, 0, 0, 0, 1, 1, 0, 1, 1, 0, 1, 0, 1, 0, 1
    12,     14, 1,   0.0215,   0.0707,  0.01816,       0,       0,       0, 0, 0, 0, 0, 1, 1, 0, 1, 1, 0, 1, 0, 1, 0, 1
    13,     15, 1,   0.0744,   0.2444,  0.06268,       0,       0,       0, 0, 0, 0, 0, 1, 1, 0, 1, 1, 0, 1, 0, 1, 0, 1
    14,     15, 1,   0.0595,    0.195,   0.0502,       0,       0,       0, 0, 0, 0, 0, 1, 1, 0, 1, 1, 0, 1, 0, 1, 0, 1
    12,     16, 1,   0.0212,   0.0834,   0.0214,       0,       0,       0, 0, 0, 0, 0, 1, 1, 0, 1, 1, 0, 1, 0, 1, 0, 1
    15,     17, 1,   0.0132,   0.0437,   0.0444,       0,       0,       0, 0, 0, 0, 0, 1, 1, 0, 1, 1, 0, 1, 0, 1, 0, 1
    16,     17, 1,   0.0454,   0.1801,   0.0466,       0,       0,       0, 0, 0, 0, 0, 1, 1, 0, 1, 1, 0, 1, 0, 1, 0, 1
    17,     18, 1,   0.0123,   0.0505,  0.01298,       0,       0,       0, 0, 0, 0, 0, 1, 1, 0, 1, 1, 0, 1, 0, 1, 0, 1
    18,     19, 1,  0.01119,   0.0493,  0.01142,       0,       0,       0, 0, 0, 0, 0, 1, 1, 0, 1, 1, 0, 1, 0, 1, 0, 1
    19,     20, 1,   0.0252,    0.117,   0.0298,       0,       0,       0, 0, 0, 0, 0, 1, 1, 0, 1, 1, 0, 1, 0, 1, 0, 1
    15,     19, 1,    0.012,   0.0394,   0.0101,       0,       0,       0, 0, 0, 0, 0, 1, 1, 0, 1, 1, 0, 1, 0, 1, 0, 1
    20,     21, 1,   0.0183,   0.0849,   0.0216,       0,       0,       0, 0, 0, 0, 0, 1, 1, 0, 1, 1, 0, 1, 0, 1, 0, 1
    21,     22, 1,   0.0209,    0.097,   0.0246,       0,       0,       0, 0, 0, 0, 0, 1, 1, 0, 1, 1, 0, 1, 0, 1, 0, 1
    22,     23, 1,   0.0342,    0.159,   0.0404,       0,       0,       0, 0, 0, 0, 0, 1, 1, 0, 1, 1, 0, 1, 0, 1, 0, 1
    23,     24, 1,   0.0135,   0.0492,   0.0498,       0,       0,       0, 0, 0, 0, 0, 1, 1, 0, 1, 1, 0, 1, 0, 1, 0, 1
    23,     25, 1,   0.0156,     0.08,   0.0864,       0,       0,       0, 0, 0, 0, 0, 1, 1, 0, 1, 1, 0, 1, 0, 1, 0, 1
    25,     27, 1,   0.0318,    0.163,   0.1764,       0,       0,       0, 0, 0, 0, 0, 1, 1, 0, 1, 1, 0, 1, 0, 1, 0, 1
    27,     28, 1,  0.01913,   0.0855,   0.0216,       0,       0,       0, 0, 0, 0, 0, 1, 1, 0, 1, 1, 0, 1, 0, 1, 0, 1
    28,     29, 1,   0.0237,   0.0943,   0.0238,       0,       0,       0, 0, 0, 0, 0, 1, 1, 0, 1, 1, 0, 1, 0, 1, 0, 1
     8,     30, 1,  0.00431,   0.0504,    0.514,       0,       0,       0, 0, 0, 0, 0, 1, 1, 0, 1, 1, 0, 1, 0, 1, 0, 1
    26,     30, 1,  0.00799,    0.086,    0.908,       0,       0,       0, 0, 0, 0, 0, 1, 1, 0, 1, 1, 0, 1, 0, 1, 0, 1
    17,     31, 1,   0.0474,   0.1563,   0.0399,       0,       0,       0, 0, 0, 0, 0, 1, 1, 0, 1, 1, 0, 1, 0, 1, 0, 1
    29,     31, 1,   0.0108,   0.0331,   0.0083,       0,       0,       0, 0, 0, 0, 0, 1, 1, 0, 1, 1, 0, 1, 0, 1, 0, 1
    23,     32, 1,   0.0317,   0.1153,   0.1173,       0,       0,       0, 0, 0, 0, 0, 1, 1, 0, 1, 1, 0, 1, 0, 1, 0, 1
    31,     32, 1,   0.0298,   0.0985,   0.0251,       0,       0,       0, 0, 0, 0, 0, 1, 1, 0, 1, 1, 0, 1, 0, 1, 0, 1
    27,     32, 1,   0.0229,   0.0755,  0.01926,       0,       0,       0, 0, 0, 0, 0, 1, 1, 0, 1, 1, 0, 1, 0, 1, 0, 1
    15,     33, 1,    0.038,   0.1244,  0.03194,       0,       0,       0, 0, 0, 0, 0, 1, 1, 0, 1, 1, 0, 1, 0, 1, 0, 1
    19,     34, 1,   0.0752,    0.247,   0.0632,       0,       0,       0, 0, 0, 0, 0, 1, 1, 0, 1, 1, 0, 1, 0, 1, 0, 1
    35,     36, 1,  0.00224,   0.0102,  0.00268,       0,       0,       0, 0, 0, 0, 0, 1, 1, 0, 1, 1, 0, 1, 0, 1, 0, 1
    35,     37, 1,    0.011,   0.0497,  0.01318,       0,       0,       0, 0, 0, 0, 0, 1, 1, 0, 1, 1, 0, 1, 0, 1, 0, 1
    33,     37, 1,   0.0415,    0.142,   0.0366,       0,       0,       0, 0, 0, 0, 0, 1, 1, 0, 1, 1, 0, 1, 0, 1, 0, 1
    34,     36, 1,  0.00871,   0.0268,  0.00568,       0,       0,       0, 0, 0, 0, 0, 1, 1, 0, 1, 1, 0, 1, 0, 1, 0, 1
    34,     37, 1,  0.00256,   0.0094,  0.00984,       0,       0,       0, 0, 0, 0, 0, 1, 1, 0, 1, 1, 0, 1, 0, 1, 0, 1
    37,     39, 1,   0.0321,    0.106,    0.027,       0,       0,       0, 0, 0, 0, 0, 1, 1, 0, 1, 1, 0, 1, 0, 1, 0, 1
    37,     40, 1,   0.0593,    0.168,    0.042,       0,       0,       0, 0, 0, 0, 0, 1, 1, 0, 1, 1, 0, 1, 0, 1, 0, 1
    30,     38, 1,  0.00464,    0.054,    0.422,       0,       0,       0, 0, 0, 0, 0, 1, 1, 0, 1, 1, 0, 1, 0, 1, 0, 1
    39,     40, 1,   0.0184,   0.0605,  0.01552,       0,       0,       0, 0, 0, 0, 0, 1, 1, 0, 1, 1, 0, 1, 0, 1, 0, 1
    40,     41, 1,   0.0145,   0.0487,  0.01222,       0,       0,       0, 0, 0, 0, 0, 1, 1, 0, 1, 1, 0, 1, 0, 1, 0, 1
    40,     42, 1,   0.0555,    0.183,   0.0466,       0,       0,       0, 0, 0, 0, 0, 1, 1, 0, 1, 1, 0, 1, 0, 1, 0, 1
    41,     42, 1,    0.041,    0.135,   0.0344,       0,       0,       0, 0, 0, 0, 0, 1, 1, 0, 1, 1, 0, 1, 0, 1, 0, 1
    43,     44, 1,   0.0608,   0.2454,  0.06068,       0,       0,       0, 0, 0, 0, 0, 1, 1, 0, 1, 1, 0, 1, 0, 1, 0, 1
    34,     43, 1,   0.0413,   0.1681,  0.04226,       0,       0,       0, 0, 0, 0, 0, 1, 1, 0, 1, 1, 0, 1, 0, 1, 0, 1
    44,     45, 1,   0.0224,   0.0901,   0.0224,       0,       0,       0, 0, 0, 0, 0, 1, 1, 0, 1, 1, 0, 1, 0, 1, 0, 1
    45,     46, 1,     0.04,   0.1356,   0.0332,       0,       0,       0, 0, 0, 0, 0, 1, 1, 0, 1, 1, 0, 1, 0, 1, 0, 1
    46,     47, 1,    0.038,    0.127,   0.0316,       0,       0,       0, 0, 0, 0, 0, 1, 1, 0, 1, 1, 0, 1, 0, 1, 0, 1
    46,     48, 1,   0.0601,    0.189,   0.0472,       0,       0,       0, 0, 0, 0, 0, 1, 1, 0, 1, 1, 0, 1, 0, 1, 0, 1
    47,     49, 1,   0.0191,   0.0625,  0.01604,       0,       0,       0, 0, 0, 0, 0, 1, 1, 0, 1, 1, 0, 1, 0, 1, 0, 1
    42,     49, 1,   0.0715,    0.323,    0.086,       0,       0,       0, 0, 0, 0, 0, 1, 1, 0, 1, 1, 0, 1, 0, 1, 0, 1
    42,     49, 2,   0.0715,    0.323,    0.086,       0,       0,       0, 0, 0, 0, 0, 1, 1, 0, 1, 1, 0, 1, 0, 1, 0, 1
    45,     49, 1,   0.0684,    0.186,   0.0444,       0,       0,       0, 0, 0, 0, 0, 1, 1, 0, 1, 1, 0, 1, 0, 1, 0, 1
    48,     49, 1,   0.0179,   0.0505,  0.01258,       0,       0,       0, 0, 0, 0, 0, 1, 1, 0, 1, 1, 0, 1, 0, 1, 0, 1
    49,     50, 1,   0.0267,   0.0752,  0.01874,       0,       0,       0, 0, 0, 0, 0, 1, 1, 0, 1, 1, 0, 1, 0, 1, 0, 1
    49,     51, 1,   0.0486,    0.137,   0.0342,       0,       0,       0, 0, 0, 0, 0, 1, 1, 0, 1, 1, 0, 1, 0, 1, 0, 1
    51,     52, 1,   0.0203,   0.0588,  0.01396,       0,       0,       0, 0, 0, 0, 0, 1, 1, 0, 1, 1, 0, 1, 0, 1, 0, 1
    52,     53, 1,   0.0405,   0.1635,  0.04058,       0,       0,       0, 0, 0, 0, 0, 1, 1, 0, 1, 1, 0, 1, 0, 1, 0, 1
    53,     54, 1,   0.0263,    0.122,    0.031,       0,       0,       0, 0, 0, 0, 0, 1, 1, 0, 1, 1, 0, 1, 0, 1, 0, 1
    49,     54, 1,    0.073,    0.289,   0.0738,       0,       0,       0, 0, 0, 0, 0, 1, 1, 0, 1, 1, 0, 1, 0, 1, 0, 1
    49,     54, 2,   0.0869,    0.291,    0.073,       0,       0,       0, 0, 0, 0, 0, 1, 1, 0, 1, 1, 0, 1, 0, 1, 0, 1
    54,     55, 1,   0.0169,   0.0707,   0.0202,       0,       0,       0, 0, 0, 0, 0, 1, 1, 0, 1, 1, 0, 1, 0, 1, 0, 1
    54,     56, 1,  0.00275,  0.00955,  0.00732,       0,       0,       0, 0, 0, 0, 0, 1, 1, 0, 1, 1, 0, 1, 0, 1, 0, 1
    55,     56, 1,  0.00488,   0.0151,  0.00374,       0,       0,       0, 0, 0, 0, 0, 1, 1, 0, 1, 1, 0, 1, 0, 1, 0, 1
    56,     57, 1,   0.0343,   0.0966,   0.0242,       0,       0,       0, 0, 0, 0, 0, 1, 1, 0, 1, 1, 0, 1, 0, 1, 0, 1
    50,     57, 1,   0.0474,    0.134,   0.0332,       0,       0,       0, 0, 0, 0, 0, 1, 1, 0, 1, 1, 0, 1, 0, 1, 0, 1
    56,     58, 1,   0.0343,   0.0966,   0.0242,       0,       0,       0, 0, 0, 0, 0, 1, 1, 0, 1, 1, 0, 1, 0, 1, 0, 1
    51,     58, 1,   0.0255,   0.0719,  0.01788,       0,       0,       0, 0, 0, 0, 0, 1, 1, 0, 1, 1, 0, 1, 0, 1, 0, 1
    54,     59, 1,   0.0503,   0.2293,   0.0598,       0,       0,       0, 0, 0, 0, 0, 1, 1, 0, 1, 1, 0, 1, 0, 1, 0, 1
    56,     59, 1,   0.0825,    0.251,   0.0569,       0,       0,       0, 0, 0, 0, 0, 1, 1, 0, 1, 1, 0, 1, 0, 1, 0, 1
    56,     59, 2,   0.0803,    0.239,   0.0536,       0,       0,       0, 0, 0, 0, 0, 1, 1, 0, 1, 1, 0, 1, 0, 1, 0, 1
    55,     59, 1,  0.04739,   0.2158,  0.05646,       0,       0,       0, 0, 0, 0, 0, 1, 1, 0, 1, 1, 0, 1, 0, 1, 0, 1
    59,     60, 1,   0.0317,    0.145,   0.0376,       0,       0,       0, 0, 0, 0, 0, 1, 1, 0, 1, 1, 0, 1, 0, 1, 0, 1
    59,     61, 1,   0.0328,     0.15,   0.0388,       0,       0,       0, 0, 0, 0, 0, 1, 1, 0, 1, 1, 0, 1, 0, 1, 0, 1
    60,     61, 1,  0.00264,   0.0135,  0.01456,       0,       0,       0, 0, 0, 0, 0, 1, 1, 0, 1, 1, 0, 1, 0, 1, 0, 1
    60,     62, 1,   0.0123,   0.0561,  0.01468,       0,       0,       0, 0, 0, 0, 0, 1, 1, 0, 1, 1, 0, 1, 0, 1, 0, 1
    61,     62, 1,  0.00824,   0.0376,   0.0098,       0,       0,       0, 0, 0, 0, 0, 1, 1, 0, 1, 1, 0, 1, 0, 1, 0, 1
    63,     64, 1,  0.00172,     0.02,    0.216,       0,       0,       0, 0, 0, 0, 0, 1, 1, 0, 1, 1, 0, 1, 0, 1, 0, 1
    38,     65, 1,  0.00901,   0.0986,    1.046,       0,       0,       0, 0, 0, 0, 0, 1, 1, 0, 1, 1, 0, 1, 0, 1, 0, 1
    64,     65, 1,  0.00269,   0.0302,     0.38,       0,       0,       0, 0, 0, 0, 0, 1, 1, 0, 1, 1, 0, 1, 0, 1, 0, 1
    49,     66, 1,    0.018,   0.0919,   0.0248,       0,       0,       0, 0, 0, 0, 0, 1, 1, 0, 1, 1, 0, 1, 0, 1, 0, 1
    49,     66, 2,    0.018,   0.0919,   0.0248,       0,       0,       0, 0, 0, 0, 0, 1, 1, 0, 1, 1, 0, 1, 0, 1, 0, 1
    62,     66, 1,   0.0482,    0.218,   0.0578,       0,       0,       0, 0, 0, 0, 0, 1, 1, 0, 1, 1, 0, 1, 0, 1, 0, 1
    62,     67, 1,   0.0258,    0.117,    0.031,       0,       0,       0, 0, 0, 0, 0, 1, 1, 0, 1, 1, 0, 1, 0, 1, 0, 1
    66,     67, 1,   0.0224,   0.1015,  0.02682,       0,       0,       0, 0, 0, 0, 0, 1, 1, 0, 1, 1, 0, 1, 0, 1, 0, 1
    65,     68, 1,  0.00138,    0.016,    0.638,       0,       0,       0, 0, 0, 0, 0, 1, 1, 0, 1, 1, 0, 1, 0, 1, 0, 1
    47,     69, 1,   0.0844,   0.2778,  0.07092,       0,       0,       0, 0, 0, 0, 0, 1, 1, 0, 1, 1, 0, 1, 0, 1, 0, 1
    49,     69, 1,   0.0985,    0.324,   0.0828,       0,       0,       0, 0, 0, 0, 0, 1, 1, 0, 1, 1, 0, 1, 0, 1, 0, 1
    69,     70, 1,     0.03,    0.127,    0.122,       0,       0,       0, 0, 0, 0, 0, 1, 1, 0, 1, 1, 0, 1, 0, 1, 0, 1
    24,     70, 1,  0.00221,   0.4115,  0.10198,       0,       0,       0, 0, 0, 0, 0, 1, 1, 0, 1, 1, 0, 1, 0, 1, 0, 1
    70,     71, 1,  0.00882,   0.0355,  0.00878,       0,       0,       0, 0, 0, 0, 0, 1, 1, 0, 1, 1, 0, 1, 0, 1, 0, 1
    24,     72, 1,   0.0488,    0.196,   0.0488,       0,       0,       0, 0, 0, 0, 0, 1, 1, 0, 1, 1, 0, 1, 0, 1, 0, 1
    71,     72, 1,   0.0446,     0.18,  0.04444,       0,       0,       0, 0, 0, 0, 0, 1, 1, 0, 1, 1, 0, 1, 0, 1, 0, 1
    71,     73, 1,  0.00866,   0.0454,  0.01178,       0,       0,       0, 0, 0, 0, 0, 1, 1, 0, 1, 1, 0, 1, 0, 1, 0, 1
    70,     74, 1,   0.0401,   0.1323,  0.03368,       0,       0,       0, 0, 0, 0, 0, 1, 1, 0, 1, 1, 0, 1, 0, 1, 0, 1
    70,     75, 1,   0.0428,    0.141,    0.036,       0,       0,       0, 0, 0, 0, 0, 1, 1, 0, 1, 1, 0, 1, 0, 1, 0, 1
    69,     75, 1,   0.0405,    0.122,    0.124,       0,       0,       0, 0, 0, 0, 0, 1, 1, 0, 1, 1, 0, 1, 0, 1, 0, 1
    74,     75, 1,   0.0123,   0.0406,  0.01034,       0,       0,       0, 0, 0, 0, 0, 1, 1, 0, 1, 1, 0, 1, 0, 1, 0, 1
    76,     77, 1,   0.0444,    0.148,   0.0368,       0,       0,       0, 0, 0, 0, 0, 1, 1, 0, 1, 1, 0, 1, 0, 1, 0, 1
    69,     77, 1,   0.0309,    0.101,   0.1038,       0,       0,       0, 0, 0, 0, 0, 1, 1, 0, 1, 1, 0, 1, 0, 1, 0, 1
    75,     77, 1,   0.0601,   0.1999,  0.04978,       0,       0,       0, 0, 0, 0, 0, 1, 1, 0, 1, 1, 0, 1, 0, 1, 0, 1
    77,     78, 1,  0.00376,   0.0124,  0.01264,       0,       0,       0, 0, 0, 0, 0, 1, 1, 0, 1, 1, 0, 1, 0, 1, 0, 1
    78,     79, 1,  0.00546,   0.0244,  0.00648,       0,       0,       0, 0, 0, 0, 0, 1, 1, 0, 1, 1, 0, 1, 0, 1, 0, 1
    77,     80, 1,    0.017,   0.0485,   0.0472,       0,       0,       0, 0, 0, 0, 0, 1, 1, 0, 1, 1, 0, 1, 0, 1, 0, 1
    77,     80, 2,   0.0294,    0.105,   0.0228,       0,       0,       0, 0, 0, 0, 0, 1, 1, 0, 1, 1, 0, 1, 0, 1, 0, 1
    79,     80, 1,   0.0156,   0.0704,   0.0187,       0,       0,       0, 0, 0, 0, 0, 1, 1, 0, 1, 1, 0, 1, 0, 1, 0, 1
    68,     81, 1,  0.00175,   0.0202,    0.808,       0,       0,       0, 0, 0, 0, 0, 1, 1, 0, 1, 1, 0, 1, 0, 1, 0, 1
    77,     82, 1,   0.0298,   0.0853,  0.08174,       0,       0,       0, 0, 0, 0, 0, 1, 1, 0, 1, 1, 0, 1, 0, 1, 0, 1
    82,     83, 1,   0.0112,  0.03665,  0.03796,       0,       0,       0, 0, 0, 0, 0, 1, 1, 0, 1, 1, 0, 1, 0, 1, 0, 1
    83,     84, 1,   0.0625,    0.132,   0.0258,       0,       0,       0, 0, 0, 0, 0, 1, 1, 0, 1, 1, 0, 1, 0, 1, 0, 1
    83,     85, 1,    0.043,    0.148,   0.0348,       0,       0,       0, 0, 0, 0, 0, 1, 1, 0, 1, 1, 0, 1, 0, 1, 0, 1
    84,     85, 1,   0.0302,   0.0641,  0.01234,       0,       0,       0, 0, 0, 0, 0, 1, 1, 0, 1, 1, 0, 1, 0, 1, 0, 1
    85,     86, 1,    0.035,    0.123,   0.0276,       0,       0,       0, 0, 0, 0, 0, 1, 1, 0, 1, 1, 0, 1, 0, 1, 0, 1
    85,     88, 1,     0.02,    0.102,   0.0276,       0,       0,       0, 0, 0, 0, 0, 1, 1, 0, 1, 1, 0, 1, 0, 1, 0, 1
    85,     89, 1,   0.0239,    0.173,    0.047,       0,       0,       0, 0, 0, 0, 0, 1, 1, 0, 1, 1, 0, 1, 0, 1, 0, 1
    88,     89, 1,   0.0139,   0.0712,  0.01934,       0,       0,       0, 0, 0, 0, 0, 1, 1, 0, 1, 1, 0, 1, 0, 1, 0, 1
    89,     90, 1,   0.0518,    0.188,   0.0528,       0,       0,       0, 0, 0, 0, 0, 1, 1, 0, 1, 1, 0, 1, 0, 1, 0, 1
    89,     90, 2,   0.0238,   0.0997,    0.106,       0,       0,       0, 0, 0, 0, 0, 1, 1, 0, 1, 1, 0, 1, 0, 1, 0, 1
    90,     91, 1,   0.0254,   0.0836,   0.0214,       0,       0,       0, 0, 0, 0, 0, 1, 1, 0, 1, 1, 0, 1, 0, 1, 0, 1
    89,     92, 1,   0.0099,   0.0505,   0.0548,       0,       0,       0, 0, 0, 0, 0, 1, 1, 0, 1, 1, 0, 1, 0, 1, 0, 1
    89,     92, 2,   0.0393,   0.1581,   0.0414,       0,       0,       0, 0, 0, 0, 0, 1, 1, 0, 1, 1, 0, 1, 0, 1, 0, 1
    91,     92, 1,   0.0387,   0.1272,  0.03268,       0,       0,       0, 0, 0, 0, 0, 1, 1, 0, 1, 1, 0, 1, 0, 1, 0, 1
    92,     93, 1,   0.0258,   0.0848,   0.0218,       0,       0,       0, 0, 0, 0, 0, 1, 1, 0, 1, 1, 0, 1, 0, 1, 0, 1
    92,     94, 1,   0.0481,    0.158,   0.0406,       0,       0,       0, 0, 0, 0, 0, 1, 1, 0, 1, 1, 0, 1, 0, 1, 0, 1
    93,     94, 1,   0.0223,   0.0732,  0.01876,       0,       0,       0, 0, 0, 0, 0, 1, 1, 0, 1, 1, 0, 1, 0, 1, 0, 1
    94,     95, 1,   0.0132,   0.0434,   0.0111,       0,       0,       0, 0, 0, 0, 0, 1, 1, 0, 1, 1, 0, 1, 0, 1, 0, 1
    80,     96, 1,   0.0356,    0.182,   0.0494,       0,       0,       0, 0, 0, 0, 0, 1, 1, 0, 1, 1, 0, 1, 0, 1, 0, 1
    82,     96, 1,   0.0162,    0.053,   0.0544,       0,       0,       0, 0, 0, 0, 0, 1, 1, 0, 1, 1, 0, 1, 0, 1, 0, 1
    94,     96, 1,   0.0269,   0.0869,    0.023,       0,       0,       0, 0, 0, 0, 0, 1, 1, 0, 1, 1, 0, 1, 0, 1, 0, 1
    80,     97, 1,   0.0183,   0.0934,   0.0254,       0,       0,       0, 0, 0, 0, 0, 1, 1, 0, 1, 1, 0, 1, 0, 1, 0, 1
    80,     98, 1,   0.0238,    0.108,   0.0286,       0,       0,       0, 0, 0, 0, 0, 1, 1, 0, 1, 1, 0, 1, 0, 1, 0, 1
    80,     99, 1,   0.0454,    0.206,   0.0546,       0,       0,       0, 0, 0, 0, 0, 1, 1, 0, 1, 1, 0, 1, 0, 1, 0, 1
    92,    100, 1,   0.0648,    0.295,   0.0472,       0,       0,       0, 0, 0, 0, 0, 1, 1, 0, 1, 1, 0, 1, 0, 1, 0, 1
    94,    100, 1,   0.0178,    0.058,   0.0604,       0,       0,       0, 0, 0, 0, 0, 1, 1, 0, 1, 1, 0, 1, 0, 1, 0, 1
    95,     96, 1,   0.0171,   0.0547,  0.01474,       0,       0,       0, 0, 0, 0, 0, 1, 1, 0, 1, 1, 0, 1, 0, 1, 0, 1
    96,     97, 1,   0.0173,   0.0885,    0.024,       0,       0,       0, 0, 0, 0, 0, 1, 1, 0, 1, 1, 0, 1, 0, 1, 0, 1
    98,    100, 1,   0.0397,    0.179,   0.0476,       0,       0,       0, 0, 0, 0, 0, 1, 1, 0, 1, 1, 0, 1, 0, 1, 0, 1
    99,    100, 1,    0.018,   0.0813,   0.0216,       0,       0,       0, 0, 0, 0, 0, 1, 1, 0, 1, 1, 0, 1, 0, 1, 0, 1
   100,    101, 1,   0.0277,   0.1262,   0.0328,       0,       0,       0, 0, 0, 0, 0, 1, 1, 0, 1, 1, 0, 1, 0, 1, 0, 1
    92,    102, 1,   0.0123,   0.0559,  0.01464,       0,       0,       0, 0, 0, 0, 0, 1, 1, 0, 1, 1, 0, 1, 0, 1, 0, 1
   101,    102, 1,   0.0246,    0.112,   0.0294,       0,       0,       0, 0, 0, 0, 0, 1, 1, 0, 1, 1, 0, 1, 0, 1, 0, 1
   100,    103, 1,    0.016,   0.0525,   0.0536,       0,       0,       0, 0, 0, 0, 0, 1, 1, 0, 1, 1, 0, 1, 0, 1, 0, 1
   100,    104, 1,   0.0451,    0.204,   0.0541,       0,       0,       0, 0, 0, 0, 0, 1, 1, 0, 1, 1, 0, 1, 0, 1, 0, 1
   103,    104, 1,   0.0466,   0.1584,   0.0407,       0,       0,       0, 0, 0, 0, 0, 1, 1, 0, 1, 1, 0, 1, 0, 1, 0, 1
   103,    105, 1,   0.0535,   0.1625,   0.0408,       0,       0,       0, 0, 0, 0, 0, 1, 1, 0, 1, 1, 0, 1, 0, 1, 0, 1
   100,    106, 1,   0.0605,    0.229,    0.062,       0,       0,       0, 0, 0, 0, 0, 1, 1, 0, 1, 1, 0, 1, 0, 1, 0, 1
   104,    105, 1,  0.00994,   0.0378,  0.00986,       0,       0,       0, 0, 0, 0, 0, 1, 1, 0, 1, 1, 0, 1, 0, 1, 0, 1
   105,    106, 1,    0.014,   0.0547,  0.01434,       0,       0,       0, 0, 0, 0, 0, 1, 1, 0, 1, 1, 0, 1, 0, 1, 0, 1
   105,    107, 1,    0.053,    0.183,   0.0472,       0,       0,       0, 0, 0, 0, 0, 1, 1, 0, 1, 1, 0, 1, 0, 1, 0, 1
   105,    108, 1,   0.0261,   0.0703,  0.01844,       0,       0,       0, 0, 0, 0, 0, 1, 1, 0, 1, 1, 0, 1, 0, 1, 0, 1
   106,    107, 1,    0.053,    0.183,   0.0472,       0,       0,       0, 0, 0, 0, 0, 1, 1, 0, 1, 1, 0, 1, 0, 1, 0, 1
   108,    109, 1,   0.0105,   0.0288,   0.0076,       0,       0,       0, 0, 0, 0, 0, 1, 1, 0, 1, 1, 0, 1, 0, 1, 0, 1
   103,    110, 1,  0.03906,   0.1813,   0.0461,       0,       0,       0, 0, 0, 0, 0, 1, 1, 0, 1, 1, 0, 1, 0, 1, 0, 1
   109,    110, 1,   0.0278,   0.0762,   0.0202,       0,       0,       0, 0, 0, 0, 0, 1, 1, 0, 1, 1, 0, 1, 0, 1, 0, 1
   110,    111, 1,    0.022,   0.0755,     0.02,       0,       0,       0, 0, 0, 0, 0, 1, 1, 0, 1, 1, 0, 1, 0, 1, 0, 1
   110,    112, 1,   0.0247,    0.064,    0.062,       0,       0,       0, 0, 0, 0, 0, 1, 1, 0, 1, 1, 0, 1, 0, 1, 0, 1
    17,    113, 1,  0.00913,   0.0301,  0.00768,       0,       0,       0, 0, 0, 0, 0, 1, 1, 0, 1, 1, 0, 1, 0, 1, 0, 1
    32,    113, 1,   0.0615,    0.203,   0.0518,       0,       0,       0, 0, 0, 0, 0, 1, 1, 0, 1, 1, 0, 1, 0, 1, 0, 1
    32,    114, 1,   0.0135,   0.0612,  0.01628,       0,       0,       0, 0, 0, 0, 0, 1, 1, 0, 1, 1, 0, 1, 0, 1, 0, 1
    27,    115, 1,   0.0164,   0.0741,  0.01972,       0,       0,       0, 0, 0, 0, 0, 1, 1, 0, 1, 1, 0, 1, 0, 1, 0, 1
   114,    115, 1,   0.0023,   0.0104,  0.00276,       0,       0,       0, 0, 0, 0, 0, 1, 1, 0, 1, 1, 0, 1, 0, 1, 0, 1
    12,    117, 1,   0.0329,     0.14,   0.0358,       0,       0,       0, 0, 0, 0, 0, 1, 1, 0, 1, 1, 0, 1, 0, 1, 0, 1
    75,    118, 1,   0.0145,   0.0481,  0.01198,       0,       0,       0, 0, 0, 0, 0, 1, 1, 0, 1, 1, 0, 1, 0, 1, 0, 1
    76,    118, 1,   0.0164,   0.0544,  0.01356,       0,       0,       0, 0, 0, 0, 0, 1, 1, 0, 1, 1, 0, 1, 0, 1, 0, 1
0 / END OF BRANCH DATA, BEGIN TRANSFORMER DATA
     8,      5, 0, 1, 1, 1, 1, 0, 0, 2, '            ', 1, 1, 1, 0, 1, 0, 1, 0, 1, '            '
0, 0.0267, 100
0.985, 0,     0,       0,       0,       0, 0, 0, 1.1, 0.9, 1.1, 0.9, 33, 0, 0, 0, 0
    1, 0
    26,     25, 0, 1, 1, 1, 1, 0, 0, 2, '            ', 1, 1, 1, 0, 1, 0, 1, 0, 1, '            '
0, 0.0382, 100
 0.96, 0,     0,       0,       0,       0, 0, 0, 1.1, 0.9, 1.1, 0.9, 33, 0, 0, 0, 0
    1, 0
    30,     17, 0, 1, 1, 1, 1, 0, 0, 2, '            ', 1, 1, 1, 0, 1, 0, 1, 0, 1, '            '
0, 0.0388, 100
 0.96, 0,     0,       0,       0,       0, 0, 0, 1.1, 0.9, 1.1, 0.9, 33, 0, 0, 0, 0
    1, 0
    38,     37, 0, 1, 1, 1, 1, 0, 0, 2, '            ', 1, 1, 1, 0, 1, 0, 1, 0, 1, '            '
0, 0.0375, 100
0.935, 0,     0,       0,       0,       0, 0, 0, 1.1, 0.9, 1.1, 0.9, 33, 0, 0, 0, 0
    1, 0
    63,     59, 0, 1, 1, 1, 1, 0, 0, 2, '            ', 1, 1, 1, 0, 1, 0, 1, 0, 1, '            '
0, 0.0386, 100
 0.96, 0,     0,       0,       0,       0, 0, 0, 1.1, 0.9, 1.1, 0.9, 33, 0, 0, 0, 0
    1, 0
    64,     61, 0, 1, 1, 1, 1, 0, 0, 2, '            ', 1, 1, 1, 0, 1, 0, 1, 0, 1, '            '
0, 0.0268, 100
0.985, 0,     0,       0,       0,       0, 0, 0, 1.1, 0.9, 1.1, 0.9, 33, 0, 0, 0, 0
    1, 0
    65,     66, 0, 1, 1, 1, 1, 0, 0, 2, '            ', 1, 1, 1, 0, 1, 0, 1, 0, 1, '            '
0, 0.037, 100
0.935, 0,     0,       0,       0,       0, 0, 0, 1.1, 0.9, 1.1, 0.9, 33, 0, 0, 0, 0
    1, 0
    68,     69, 0, 1, 1, 1, 1, 0, 0, 2, '            ', 1, 1, 1, 0, 1, 0, 1, 0, 1, '            '
0, 0.037, 100
0.935, 0,     0,       0,       0,       0, 0, 0, 1.1, 0.9, 1.1, 0.9, 33, 0, 0, 0, 0
    1, 0
    81,     80, 0, 1, 1, 1, 1, 0, 0, 2, '            ', 1, 1, 1, 0, 1, 0, 1, 0, 1, '            '
0, 0.037, 100
0.935, 0,     0,       0,       0,       0, 0, 0, 1.1, 0.9, 1.1, 0.9, 33, 0, 0, 0, 0
    1, 0
    86,     87, 0, 1, 1, 1, 1, 0, 0, 2, '            ', 1, 1, 1, 0, 1, 0, 1, 0, 1, '            '
0.02828, 0.2074, 100
    1, 0,     0,       0,       0,       0, 0, 0, 1.1, 0.9, 1.1, 0.9, 33, 0, 0, 0, 0
    1, 0
    68,    116, 0, 1, 1, 1, 1, 0, 0, 2, '            ', 1, 1, 1, 0, 1, 0, 1, 0, 1, '            '
0.00034, 0.00405, 100
    1, 0,     0,       0,       0,       0, 0, 0, 1.1, 0.9, 1.1, 0.9, 33, 0, 0, 0, 0
    1, 0
0 / END OF TRANSFORMER DATA, BEGIN AREA DATA
0 / END OF AREA DATA, BEGIN TWO-TERMINAL DC DATA
0 / END OF TWO-TERMINAL DC DATA, BEGIN VOLTAGE SOURCE CONVERTER DATA
0 / END OF VOLTAGE SOURCE CONVERTER DATA, BEGIN IMPEDANCE CORRECTION DATA
0 / END OF IMPEDANCE CORRECTION DATA, BEGIN MULTI-TERMINAL DC DATA
0 / END OF MULTI-TERMINAL DC DATA, BEGIN MULTI-SECTION LINE DATA
0 / END OF MULTI-SECTION LINE DATA, BEGIN ZONE DATA
0 / END OF ZONE DATA, BEGIN INTER-AREA TRANSFER DATA
0 / END OF INTER-AREA TRANSFER DATA, BEGIN OWNER DATA
0 / END OF OWNER DATA, BEGIN FACTS CONTROL DEVICE DATA
0 / END OF FACTS CONTROL DEVICE DATA, BEGIN SWITCHED SHUNT DATA
0 / END OF SWITCHED SHUNT DATA, BEGIN GNE DEVICE DATA
0 / END OF GNE DEVICE DATA, BEGIN INDUCTION MACHINE DATA
0 / END OF INDUCTION MACHINE DATA
Q
